Version 4
SHEET 1 880 680
WIRE 16 0 -16 0
WIRE -16 32 -16 0
WIRE 192 64 176 64
WIRE 304 64 272 64
WIRE 304 96 304 64
WIRE -112 128 -144 128
WIRE 176 144 176 64
WIRE -144 160 -144 128
WIRE 96 160 96 0
WIRE 144 160 96 160
WIRE -32 176 -32 128
WIRE 240 176 208 176
WIRE 144 192 112 192
WIRE 176 224 176 208
WIRE -32 288 -32 256
WIRE 0 288 -32 288
WIRE 112 288 112 192
WIRE 112 288 80 288
WIRE 144 288 112 288
WIRE 240 288 240 176
WIRE 240 288 224 288
WIRE -32 336 -32 288
WIRE -32 432 -32 416
FLAG -32 432 0
FLAG 176 224 0
FLAG -144 160 0
FLAG 304 96 0
FLAG -16 32 0
SYMBOL OpAmps\\AD8605 176 112 R0
SYMATTR InstName DD6
SYMBOL res 240 272 R90
WINDOW 0 0 56 VBottom 2
WINDOW 3 32 56 VTop 0
SYMATTR InstName R5
SYMATTR Value 100k
SYMBOL res -48 160 R0
WINDOW 3 36 76 Left 0
SYMATTR Value 100k
SYMATTR InstName R3
SYMBOL res -48 320 R0
WINDOW 3 36 76 Left 0
SYMATTR Value 500
SYMATTR InstName R6_VARIABLE
SYMBOL voltage 176 64 R270
WINDOW 0 32 56 VTop 2
WINDOW 3 -32 56 VBottom 0
WINDOW 123 0 0 Left 0
WINDOW 39 0 0 Left 0
SYMATTR InstName V3V3
SYMATTR Value 3.3
SYMBOL voltage -16 128 R90
WINDOW 0 -32 56 VBottom 2
WINDOW 3 32 56 VTop 0
WINDOW 123 0 0 Left 0
WINDOW 39 0 0 Left 0
SYMATTR InstName V5_VDD
SYMATTR Value 5
SYMBOL voltage 112 0 R90
WINDOW 0 -32 56 VBottom 2
WINDOW 3 32 56 VTop 0
WINDOW 123 0 0 Left 0
WINDOW 39 0 0 Left 0
SYMATTR InstName INPUT
SYMATTR Value SINE(0 1 1)
SYMBOL res 96 272 R90
WINDOW 0 0 56 VBottom 2
WINDOW 3 32 56 VTop 0
SYMATTR InstName R1
SYMATTR Value 1k
TEXT -168 456 Left 2 !.tran 1
