Version 4
SHEET 1 880 680
WIRE -384 -48 -416 -48
WIRE -256 -48 -304 -48
WIRE 176 -32 96 -32
WIRE 384 -32 256 -32
WIRE -416 -16 -416 -48
WIRE -256 0 -256 -48
WIRE 464 16 432 16
WIRE 576 16 544 16
WIRE 592 16 576 16
WIRE 848 16 672 16
WIRE 192 64 176 64
WIRE 304 64 272 64
WIRE 432 80 432 16
WIRE 688 80 640 80
WIRE 800 80 768 80
WIRE 304 96 304 64
WIRE 800 112 800 80
WIRE 640 128 640 80
WIRE -256 144 -256 80
WIRE -256 144 -320 144
WIRE -32 144 -256 144
WIRE 176 144 176 64
WIRE 576 144 576 16
WIRE 608 144 576 144
WIRE -32 160 -32 144
WIRE -16 160 -32 160
WIRE 96 160 96 -32
WIRE 96 160 64 160
WIRE 128 160 96 160
WIRE 144 160 128 160
WIRE 800 160 672 160
WIRE 848 160 848 16
WIRE 848 160 800 160
WIRE 288 176 208 176
WIRE 384 176 384 -32
WIRE 384 176 288 176
WIRE 608 176 384 176
WIRE 128 192 112 192
WIRE 144 192 128 192
WIRE 176 224 176 208
WIRE 640 224 640 192
WIRE -320 272 -320 208
WIRE -144 288 -176 288
WIRE -16 288 -64 288
WIRE 112 288 112 192
WIRE 112 288 64 288
WIRE -176 320 -176 288
WIRE 112 352 112 288
WIRE 112 448 112 432
FLAG 112 448 0
FLAG 176 224 0
FLAG -416 -16 0
FLAG 304 96 0
FLAG -176 320 0
FLAG 128 160 V-
FLAG 128 192 V+
FLAG 288 176 V_out
FLAG 800 112 0
FLAG 640 224 0
FLAG 432 80 0
FLAG 800 160 ADC_IN
FLAG -320 272 0
SYMBOL OpAmps\\AD8605 176 112 R0
SYMATTR InstName DD6
SYMBOL res -32 176 R270
WINDOW 3 0 56 VBottom 1
WINDOW 0 32 56 VTop 2
SYMATTR Value 10k
SYMATTR InstName R1
SYMBOL res 96 336 R0
WINDOW 3 36 76 Left 1
SYMATTR Value 10k
SYMATTR InstName Rg
SYMBOL voltage 176 64 R270
WINDOW 0 32 56 VTop 2
WINDOW 3 -32 56 VBottom 1
WINDOW 123 0 0 Left 0
WINDOW 39 0 0 Left 0
SYMATTR InstName V5
SYMATTR Value 5
SYMBOL voltage -288 -48 R90
WINDOW 0 -32 56 VBottom 2
WINDOW 3 32 56 VTop 1
WINDOW 123 0 0 Left 0
WINDOW 39 0 0 Left 0
SYMATTR InstName V_DIF
SYMATTR Value 5
SYMBOL voltage -48 288 R90
WINDOW 0 -32 56 VBottom 2
WINDOW 3 85 85 VBottom 2
WINDOW 123 0 0 Left 0
WINDOW 39 0 0 Left 0
SYMATTR InstName INPUT
SYMATTR Value SINE(1.6 1 100 0 0 0 1000)
SYMBOL res 80 272 R90
WINDOW 0 0 56 VBottom 2
WINDOW 3 32 56 VTop 1
SYMATTR InstName R2
SYMATTR Value 5k
SYMBOL res 272 -48 R90
WINDOW 0 0 56 VBottom 2
WINDOW 3 32 56 VTop 1
SYMATTR InstName Rf
SYMATTR Value 5k
SYMBOL OpAmps\\AD8605 640 96 R0
SYMATTR InstName DD1
SYMBOL res 560 0 R90
WINDOW 0 0 56 VBottom 2
WINDOW 3 32 56 VTop 1
SYMATTR InstName Rampl1
SYMATTR Value 10k
SYMBOL res 688 0 R90
WINDOW 0 0 56 VBottom 2
WINDOW 3 32 56 VTop 1
SYMATTR InstName Rampl2
SYMATTR Value 15k
SYMBOL voltage 672 80 R270
WINDOW 0 32 56 VTop 2
WINDOW 3 -32 56 VBottom 1
WINDOW 123 0 0 Left 0
WINDOW 39 0 0 Left 0
SYMATTR InstName V1
SYMATTR Value 5
SYMBOL References\\LT1634-1.25 -320 176 R0
WINDOW 3 -171 4 Left 2
WINDOW 0 -74 -31 Left 2
SYMATTR InstName U1
SYMBOL res -272 -16 R0
SYMATTR InstName Rf1
SYMATTR Value 2.94k
TEXT 632 -176 Left 2 !.tran 1
